# WEL package for  MODFLOW-2005, generated by Flopy.
         1         0
         1         0 # stress period 0
         1        91        91   1.5950570E+03
         1         0 # stress period 1
         1        91        91   9.9192664E+02
         1         0 # stress period 2
         1        91        91   1.9939376E+03
         1         0 # stress period 3
         1        91        91   1.9678831E+03
         1         0 # stress period 4
         1        91        91  -1.3057120E+03
         1         0 # stress period 5
         1        91        91   1.8879807E+03
         1         0 # stress period 6
         1        91        91   1.9215414E+03
         1         0 # stress period 7
         1        91        91  -1.8742501E+03
         1         0 # stress period 8
         1        91        91   1.3624131E+03
         1         0 # stress period 9
         1        91        91  -1.7638306E+03
         1         0 # stress period 10
         1        91        91  -1.8541390E+03
         1         0 # stress period 11
         1        91        91   1.2162588E+03
         1         0 # stress period 12
         1        91        91   1.9935521E+03
         1         0 # stress period 13
         1        91        91  -2.0958149E+03
         1         0 # stress period 14
         1        91        91  -1.3300912E+03
         1         0 # stress period 15
         1        91        91  -8.0575043E+02
         1         0 # stress period 16
         1        91        91  -2.9829150E+02
         1         0 # stress period 17
         1        91        91   2.1450256E+03
         1         0 # stress period 18
         1        91        91  -1.6679412E+03
         1         0 # stress period 19
         1        91        91  -1.6679412E+03
